Version 4
SHEET 1 880 680
WIRE 224 -512 48 -512
WIRE 48 -480 48 -512
WIRE 224 -464 224 -512
WIRE 224 -368 224 -400
WIRE -80 -320 -192 -320
WIRE -528 -304 -880 -304
WIRE -384 -304 -384 -320
WIRE -384 -304 -416 -304
WIRE -528 -272 -528 -304
WIRE -512 -272 -528 -272
WIRE -416 -272 -416 -304
WIRE -416 -272 -432 -272
WIRE -80 -272 -80 -320
WIRE 64 -272 -80 -272
WIRE 224 -272 224 -288
WIRE 224 -272 144 -272
WIRE 320 -272 224 -272
WIRE 400 -272 384 -272
WIRE -880 -256 -880 -304
WIRE -192 -256 -192 -272
WIRE -176 -256 -176 -272
WIRE -176 -256 -192 -256
WIRE 224 -240 224 -272
WIRE -384 -224 -448 -224
WIRE -528 -192 -784 -192
WIRE -448 -192 -448 -224
WIRE -448 -192 -528 -192
WIRE -528 -160 -528 -192
WIRE -176 -160 -176 -256
WIRE -880 -144 -880 -176
WIRE -784 -144 -784 -192
WIRE -784 -144 -880 -144
WIRE 48 -144 48 -400
WIRE 224 -144 224 -176
WIRE 224 -144 48 -144
WIRE 320 -144 320 -256
WIRE 320 -144 224 -144
WIRE 224 -112 224 -144
FLAG 224 -112 0
FLAG -528 -160 0
FLAG -176 -160 0
SYMBOL res 160 -288 R90
WINDOW 0 0 56 VBottom 2
WINDOW 3 32 56 VTop 2
SYMATTR InstName R1
SYMATTR Value 100
SYMBOL res 240 -272 R180
WINDOW 0 36 76 Left 2
WINDOW 3 36 40 Left 2
SYMATTR InstName R2
SYMATTR Value 4700
SYMBOL cap 208 -240 R0
SYMATTR InstName C1
SYMATTR Value 0.001µ
SYMATTR SpiceLine V=50 Irms=83.8m Rser=2.70485 Lser=0 mfg="KEMET" pn="C0805C102K5RAC" type="X7R"
SYMBOL Digital\\schmtinv 320 -336 R0
SYMATTR InstName A1
SYMBOL voltage 48 -496 R0
WINDOW 123 0 0 Left 2
WINDOW 39 24 44 Left 2
SYMATTR InstName V1
SYMATTR Value 5
SYMBOL voltage -880 -272 R0
WINDOW 123 0 0 Left 2
WINDOW 39 0 0 Left 2
SYMATTR InstName V2
SYMATTR Value PULSE(0 24 0.01 0.0001 0.0001 0.005 0.01 100)
SYMBOL res -416 -288 R90
WINDOW 0 0 56 VBottom 2
WINDOW 3 32 56 VTop 2
SYMATTR InstName R3
SYMATTR Value 750
SYMBOL Optos\\MOC207 -288 -256 R0
SYMATTR InstName U1
SYMBOL diode 208 -464 R0
SYMATTR InstName D1
TEXT -232 -360 Left 2 !.tran 0 0.15 0 0.0000001
